<?xml version="1.0" encoding="UTF-8"?>

<!-- generated on Sun May 17 15:17:56 2015 by SUMO polyconvert Version 0.22.0
<?xml version="1.0" encoding="UTF-8"?>

<configuration xmlns:xsi="http://www.w3.org/2001/XMLSchema-instance" xsi:noNamespaceSchemaLocation="http://sumo.dlr.de/xsd/polyconvertConfiguration.xsd">

    <input>
        <net-file value="map.net.xml"/>
        <osm-files value="map.osm"/>
        <type-file value="typemap.xml"/>
    </input>

    <output>
        <output-file value="map.poly.xml"/>
    </output>

</configuration>
-->

<additional xmlns:xsi="http://www.w3.org/2001/XMLSchema-instance" xsi:noNamespaceSchemaLocation="http://sumo.dlr.de/xsd/additional_file.xsd">
    <poly id="138164790" type="amenity" color="237,199,199" fill="1" layer="-1.00" shape="1074.15,620.94 1108.09,721.04 1194.20,668.57 1170.87,641.39 1164.34,617.75 1149.21,623.37 1127.66,600.92 1074.15,620.94"/>
    <poly id="162040549" type="building" color="255,230,230" fill="1" layer="-1.00" shape="1947.46,820.36 1960.68,803.36 1956.71,794.31 1969.96,782.05 1990.43,802.17 1960.80,832.26 1947.46,820.36"/>
    <poly id="162040551" type="tourism" color="207,245,201" fill="1" layer="-2.00" shape="1902.07,815.29 1938.59,780.97 1955.53,794.28 1956.16,805.11 1922.25,835.37 1902.07,815.29"/>
    <poly id="162040553" type="building" color="255,230,230" fill="1" layer="-1.00" shape="1895.63,844.66 1911.00,828.46 1946.33,861.70 1930.96,877.90 1895.63,844.66"/>
    <poly id="162040554" type="building" color="255,230,230" fill="1" layer="-1.00" shape="1898.81,911.75 1909.20,921.40 1963.72,878.16 1946.96,862.04 1898.81,911.75"/>
    <poly id="162040555" type="building" color="255,230,230" fill="1" layer="-1.00" shape="1890.85,806.03 1900.41,816.18 1954.28,765.83 1944.72,755.68 1890.85,806.03"/>
    <poly id="162040556" type="building" color="255,230,230" fill="1" layer="-1.00" shape="1922.64,837.04 1935.68,824.54 1976.87,866.33 1964.56,878.36 1922.64,837.04"/>
    <poly id="174673970" type="water" color="181,209,209" fill="0" layer="-4.00" shape="2013.86,1978.62 1992.69,1965.39 1910.16,1906.46 1851.03,1858.83 1770.59,1792.26 1688.31,1715.56 1621.20,1648.84 1528.85,1551.15 1488.83,1506.18 1417.39,1414.13 1329.46,1292.66 1240.24,1151.25 1184.45,1052.48 1114.93,920.65 1064.45,803.98 1024.17,699.62 862.75,199.49 847.37,159.86"/>
    <poly id="220646212" type="amenity" color="237,199,199" fill="1" layer="-1.00" shape="1366.41,487.04 1376.42,501.83 1397.02,488.01 1387.00,473.20 1366.41,487.04"/>
    <poly id="220646212#1" type="building" color="255,230,230" fill="1" layer="-1.00" shape="1366.41,487.04 1376.42,501.83 1397.02,488.01 1387.00,473.20 1366.41,487.04"/>
    <poly id="242516272" type="residential" color="235,235,227" fill="1" layer="-3.00" shape="2049.61,631.88 2081.03,601.28 2039.24,541.63 2062.20,529.50 2038.83,490.60 2033.53,481.80 2042.83,473.49 2022.93,453.34 1714.86,455.91 1677.81,491.64 1924.51,734.73 2049.61,631.88"/>
    <poly id="242516289" type="leisure" color="207,245,201" fill="1" layer="-2.00" shape="1874.57,528.22 1895.92,548.51 1907.08,536.88 1885.73,516.58 1874.57,528.22"/>
    <poly id="242516289#1" type="sport" color="79,230,125" fill="1" layer="-2.00" shape="1874.57,528.22 1895.92,548.51 1907.08,536.88 1885.73,516.58 1874.57,528.22"/>
    <poly id="242516291" type="leisure" color="207,245,201" fill="1" layer="-2.00" shape="1993.61,392.45 2005.44,405.33 2027.37,385.35 2020.38,377.73 2015.54,372.47 1993.61,392.45"/>
    <poly id="242516291#1" type="sport" color="79,230,125" fill="1" layer="-2.00" shape="1993.61,392.45 2005.44,405.33 2027.37,385.35 2020.38,377.73 2015.54,372.47 1993.61,392.45"/>
    <poly id="242516299" type="amenity" color="237,199,199" fill="1" layer="-1.00" shape="1977.87,388.73 2040.66,322.88 2096.10,379.70 1995.92,408.05 1977.87,388.73"/>
    <poly id="242516301" type="amenity" color="237,199,199" fill="1" layer="-1.00" shape="1887.19,573.77 1916.96,557.29 1891.73,512.80 1843.04,530.04 1887.19,573.77"/>
    <poly id="265733746" type="landuse" color="194,194,130" fill="1" layer="-3.00" shape="1705.69,-218.86 1695.12,-211.18 1684.66,-205.22 1676.22,-201.12 1665.36,-196.61 1653.13,-191.25 1636.02,-184.25 1627.00,-179.13 1618.00,-172.82 1609.10,-165.61 1601.45,-158.05 1593.68,-147.11 1589.01,-139.81 1583.97,-128.75 1581.38,-119.45 1579.43,-108.81 1578.65,-99.36 1575.87,-66.64 1576.11,-45.40 1576.62,-39.30 1577.99,-31.12 1584.36,-16.78 1591.36,-2.20 1593.55,11.39 1593.48,22.79 1590.16,33.05 1588.59,37.35 1586.92,41.96 1583.70,49.72 1548.76,107.90 1679.02,254.60 1778.29,365.33 1807.44,355.29 1810.74,353.55 1823.46,345.94 1835.11,337.62 2049.34,167.62 2054.60,161.47 2060.62,152.16 2065.62,143.58 2068.94,135.75 2072.48,120.87 2075.14,107.42 2078.06,93.84 2081.25,86.82 2085.73,81.90 2089.20,79.05 2093.51,75.54 2068.12,49.14 2006.96,-14.06 2011.42,-17.97 1966.34,-66.20 1949.12,-90.83 1940.60,-108.21 1935.74,-117.12 1839.01,-214.15 1818.15,-229.43 1803.84,-237.60 1789.23,-242.10 1774.12,-243.56 1763.68,-244.07 1743.94,-241.16 1726.37,-235.76 1715.44,-228.05 1705.69,-218.86"/>
    <poly id="265895464" type="landuse" color="194,194,130" fill="1" layer="-3.00" shape="1596.10,310.20 1590.89,303.47 1587.00,296.20 1578.84,280.48 1541.88,205.81 1521.37,159.63 1521.47,156.19 1523.45,151.65 1548.76,107.90 1679.02,254.60 1778.29,365.33 1766.45,368.23 1740.56,374.12 1699.31,384.20 1686.45,387.22 1678.10,388.66 1671.08,388.92 1664.45,388.01 1658.55,386.32 1654.12,383.84 1649.67,379.85 1642.20,370.45 1610.05,328.72 1596.10,310.20"/>
    <poly id="265895464#1" type="leisure" color="207,245,201" fill="1" layer="-2.00" shape="1596.10,310.20 1590.89,303.47 1587.00,296.20 1578.84,280.48 1541.88,205.81 1521.37,159.63 1521.47,156.19 1523.45,151.65 1548.76,107.90 1679.02,254.60 1778.29,365.33 1766.45,368.23 1740.56,374.12 1699.31,384.20 1686.45,387.22 1678.10,388.66 1671.08,388.92 1664.45,388.01 1658.55,386.32 1654.12,383.84 1649.67,379.85 1642.20,370.45 1610.05,328.72 1596.10,310.20"/>
    <poly id="265895467" type="leisure" color="207,245,201" fill="1" layer="-2.00" shape="1656.69,303.24 1677.56,289.52 1705.18,331.14 1684.31,344.87 1656.69,303.24"/>
    <poly id="265895467#1" type="sport" color="79,230,125" fill="1" layer="-2.00" shape="1656.69,303.24 1677.56,289.52 1705.18,331.14 1684.31,344.87 1656.69,303.24"/>
    <poly id="265895468" type="leisure" color="207,245,201" fill="1" layer="-2.00" shape="1668.34,332.78 1663.32,336.08 1656.68,326.08 1661.70,322.77 1668.34,332.78"/>
    <poly id="265895468#1" type="sport" color="79,230,125" fill="1" layer="-2.00" shape="1668.34,332.78 1663.32,336.08 1656.68,326.08 1661.70,322.77 1668.34,332.78"/>
    <poly id="271494095" type="building" color="255,230,230" fill="1" layer="-1.00" shape="1637.23,316.65 1631.86,320.18 1649.10,346.13 1653.47,352.70 1658.83,349.18 1662.93,346.47 1641.32,313.95 1637.23,316.65"/>
    <poly id="271494205" type="leisure" color="207,245,201" fill="0" layer="-2.00" shape="1577.62,148.57 1720.88,309.58 1726.99,322.25 1728.54,336.21 1725.37,349.89 1717.81,361.76 1706.74,370.45 1693.40,375.01 1679.29,374.91 1666.02,370.15 1655.07,361.30 1614.82,307.91"/>
    <poly id="302579072" type="leisure" color="207,245,201" fill="1" layer="-2.00" shape="1118.06,440.20 1098.14,450.18 1087.08,426.33 1077.81,430.06 1074.57,422.98 1086.80,416.33 1086.22,411.75 1098.00,405.54 1101.03,409.76 1104.66,407.86 1110.08,423.71 1118.06,440.20"/>
    <poly id="302581205" type="building" color="255,230,230" fill="1" layer="-1.00" shape="1157.88,857.69 1221.65,838.86 1175.90,723.83 1123.10,755.20 1157.88,857.69"/>
    <poly id="302581205#1" type="shop" color="237,199,255" fill="1" layer="-1.00" shape="1157.88,857.69 1221.65,838.86 1175.90,723.83 1123.10,755.20 1157.88,857.69"/>
    <poly id="302658446" type="natural" color="140,196,107" fill="0" layer="-4.00" shape="2303.28,443.12 2255.60,440.43 2159.62,440.45 2079.38,440.12 1981.66,440.15 1895.53,437.42"/>
    <poly id="302658447" type="natural" color="140,196,107" fill="0" layer="-4.00" shape="1871.43,437.55 1762.30,436.73 1719.32,436.20 1707.29,435.62 1693.45,434.20 1684.89,433.05 1673.72,431.22 1661.70,428.34 1637.69,421.74 1612.15,414.03 1600.25,409.48 1594.24,406.86 1589.50,404.38 1581.24,399.22 1574.23,394.62 1566.93,388.65 1559.19,381.47 1548.49,370.90 1541.18,362.17 1533.81,351.84 1474.20,259.90"/>
    <poly id="307952623" type="landuse" color="194,194,130" fill="1" layer="-3.00" shape="1257.75,729.73 1249.40,733.24 1232.61,701.74 1191.85,724.06 1186.35,710.52 1214.44,693.70 1247.73,676.33 1257.75,729.73"/>
    <poly id="307952624" type="leisure" color="207,245,201" fill="1" layer="-2.00" shape="1247.85,791.92 1241.35,763.77 1261.67,754.50 1267.60,785.91 1247.85,791.92"/>
    <poly id="327547478" type="leisure" color="207,245,201" fill="1" layer="-2.00" shape="1749.59,867.65 1759.45,877.91 1780.36,860.43 1770.40,849.80 1749.59,867.65"/>
    <poly id="330033681" type="landuse" color="194,194,130" fill="1" layer="-3.00" shape="1632.62,407.40 1648.44,393.66 1649.89,394.57 1652.48,396.19 1658.34,398.15 1660.49,398.86 1661.79,399.30 1652.23,412.16 1651.01,411.87 1634.12,407.75 1632.62,407.40"/>
    <poly id="332287574" type="building" color="255,230,230" fill="1" layer="-1.00" shape="1107.86,710.83 1101.60,692.81 1117.21,688.06 1115.13,681.94 1147.43,671.44 1153.65,691.01 1130.79,699.71 1131.57,702.85 1107.86,710.83"/>
    <poly id="332287575" type="building" color="255,230,230" fill="1" layer="-1.00" shape="1163.39,678.65 1181.48,672.60 1174.06,646.75 1169.49,648.18 1161.92,621.46 1146.82,626.23 1147.92,630.41 1144.94,631.19 1152.28,653.92 1155.44,652.97 1163.39,678.65"/>
    <poly id="332287576" type="building" color="255,230,230" fill="1" layer="-1.00" shape="1090.75,640.88 1117.26,632.29 1115.79,628.96 1122.83,626.06 1118.48,614.15 1111.28,616.19 1110.34,613.05 1083.99,621.82 1085.42,626.70 1083.32,627.16 1087.01,637.83 1089.64,637.22 1090.75,640.88"/>
    <poly id="332287577" type="landuse" color="194,194,130" fill="1" layer="-3.00" shape="1117.17,750.06 1108.38,722.96 1194.43,670.03 1214.44,693.70 1186.35,710.52 1117.17,750.06"/>
    <poly id="340072435" type="building" color="255,230,230" fill="1" layer="-1.00" shape="1866.50,549.74 1888.07,571.61 1898.70,565.64 1896.76,563.45 1901.89,559.33 1880.20,536.73 1866.50,549.74"/>
    <poly id="340473841" type="building" color="255,230,230" fill="1" layer="-1.00" shape="1593.22,424.35 1596.92,429.77 1604.34,425.31 1600.36,420.10 1593.22,424.35"/>
    <poly id="340473842" type="landuse" color="194,194,130" fill="1" layer="-3.00" shape="1594.47,434.16 1610.68,423.18 1571.26,404.33 1594.47,434.16"/>
    <poly id="67825703" type="residential" color="235,235,227" fill="1" layer="-3.00" shape="1735.80,429.52 1808.53,368.48 1900.88,298.12 2051.96,181.05 2063.47,165.77 2071.12,149.73 2075.42,137.59 2081.94,114.42 2084.83,99.54 2087.13,93.08 2091.67,88.69 2098.04,88.54 2154.54,144.58 2404.14,417.34 2381.07,428.00 1735.80,429.52"/>
    <poly id="67825704" type="residential" color="235,235,227" fill="1" layer="-3.00" shape="1395.38,720.40 1481.17,637.93 1654.67,505.14 1910.37,741.90 1656.22,976.18 1395.38,720.40"/>
    <poly id="67826409" type="leisure" color="207,245,201" fill="1" layer="-2.00" shape="1116.75,678.83 1133.50,673.27 1124.15,645.38 1107.39,650.95 1116.75,678.83"/>
    <poly id="67826409#1" type="sport" color="79,230,125" fill="1" layer="-2.00" shape="1116.75,678.83 1133.50,673.27 1124.15,645.38 1107.39,650.95 1116.75,678.83"/>
    <poly id="67826412" type="residential" color="235,235,227" fill="1" layer="-3.00" shape="924.20,293.56 1041.77,255.12 1074.92,264.40 1149.19,430.28 1219.60,567.74 1273.71,648.59 1212.09,689.01 1172.80,640.90 1165.29,615.42 1148.85,621.90 1118.73,590.61 1054.04,615.33 1177.72,947.51 1159.43,947.78 1076.22,771.12 1024.65,637.89 1020.55,627.30 956.01,414.55 924.20,293.56"/>
    <poly id="67826416" type="leisure" color="207,245,201" fill="1" layer="-2.00" shape="1133.50,673.27 1149.74,667.86 1140.38,639.98 1124.15,645.38 1133.50,673.27"/>
    <poly id="67826416#1" type="sport" color="79,230,125" fill="1" layer="-2.00" shape="1133.50,673.27 1149.74,667.86 1140.38,639.98 1124.15,645.38 1133.50,673.27"/>
    <poly id="67826417" type="residential" color="235,235,227" fill="1" layer="-3.00" shape="1375.29,705.71 1463.58,617.65 1683.56,452.62 1556.76,404.09 1507.13,346.95 1347.27,78.78 1330.60,77.51 1138.33,205.86 1180.79,304.32 1143.70,318.73 1253.91,549.08 1291.20,613.91 1333.90,663.41 1375.29,705.71"/>
    <poly id="67826419" type="residential" color="235,235,227" fill="1" layer="-3.00" shape="1790.53,372.34 1790.79,377.72 1723.60,428.86 1669.82,417.05 1602.02,400.54 1563.46,369.35 1540.48,331.61 1367.12,70.95 1369.49,53.69 1528.47,-48.81 1573.41,9.43 1561.76,38.31 1578.69,52.20 1550.80,97.97 1511.68,165.83 1515.56,174.63 1552.52,247.39 1567.92,278.36 1578.19,298.96 1583.65,308.82 1592.06,320.73 1606.07,338.55 1636.72,379.60 1645.60,389.14 1652.45,394.33 1658.60,396.83 1667.54,398.39 1675.85,398.34 1690.50,395.48 1709.06,391.29 1732.90,386.13 1790.53,372.34"/>
    <poly id="67826421" type="leisure" color="207,245,201" fill="1" layer="-2.00" shape="1099.76,684.48 1116.75,678.83 1107.39,650.95 1090.41,656.60 1099.76,684.48"/>
    <poly id="67826421#1" type="sport" color="79,230,125" fill="1" layer="-2.00" shape="1099.76,684.48 1116.75,678.83 1107.39,650.95 1090.41,656.60 1099.76,684.48"/>
    <poly id="67826763" type="residential" color="235,235,227" fill="1" layer="-3.00" shape="1279.10,659.72 1250.74,681.96 1278.28,833.66 1250.95,856.98 1169.94,880.50 1221.08,1053.48 1292.53,1020.95 1441.25,972.51 1463.50,991.31 1531.80,922.38 1360.49,750.30 1279.10,659.72"/>
    <poi id="1119143513" type="amenity" color="237,199,199" layer="-1.00" x="1164.72" y="535.63"/>
    <poi id="2482900602" type="amenity" color="237,199,199" layer="-1.00" x="1492.72" y="811.53"/>
    <poi id="3068280011" type="shop" color="237,199,255" layer="-1.00" x="1203.72" y="395.18"/>
    <poi id="3075306749" type="shop" color="237,199,255" layer="-1.00" x="1374.23" y="709.72"/>
    <poi id="3088284932" type="amenity" color="237,199,199" layer="-1.00" x="1908.15" y="777.88"/>
    <poi id="3088289919" type="amenity" color="237,199,199" layer="-1.00" x="1808.57" y="382.05"/>
    <poi id="3088298019" type="amenity" color="237,199,199" layer="-1.00" x="1976.53" y="562.92"/>
    <poi id="3088298020" type="amenity" color="237,199,199" layer="-1.00" x="1979.67" y="514.44"/>
    <poi id="3111685049" type="shop" color="237,199,255" layer="-1.00" x="1302.14" y="515.14"/>
    <poi id="3132114786" type="building" color="255,230,230" layer="-1.00" x="1185.39" y="670.99"/>
    <poi id="3132114794" type="amenity" color="237,199,199" layer="-1.00" x="1247.26" y="692.93"/>
    <poi id="3132114795" type="amenity" color="237,199,199" layer="-1.00" x="1245.19" y="690.30"/>
    <poi id="3132114796" type="amenity" color="237,199,199" layer="-1.00" x="1242.20" y="689.78"/>
    <poi id="3132114797" type="amenity" color="237,199,199" layer="-1.00" x="1238.39" y="692.52"/>
    <poi id="3132114798" type="amenity" color="237,199,199" layer="-1.00" x="1239.27" y="696.83"/>
    <poi id="3132114799" type="amenity" color="237,199,199" layer="-1.00" x="1245.46" y="720.54"/>
    <poi id="3132114800" type="amenity" color="237,199,199" layer="-1.00" x="1247.47" y="725.44"/>
    <poi id="3132114801" type="amenity" color="237,199,199" layer="-1.00" x="1251.01" y="726.54"/>
    <poi id="3132114802" type="amenity" color="237,199,199" layer="-1.00" x="1254.37" y="724.51"/>
    <poi id="3132114803" type="amenity" color="237,199,199" layer="-1.00" x="1253.60" y="721.34"/>
    <poi id="3132175343" type="amenity" color="237,199,199" layer="-1.00" x="1251.39" y="398.69"/>
    <poi id="3132175344" type="amenity" color="237,199,199" layer="-1.00" x="1281.95" y="364.25"/>
    <poi id="3132185777" type="amenity" color="237,199,199" layer="-1.00" x="1511.14" y="357.90"/>
    <poi id="3343422687" type="amenity" color="237,199,199" layer="-1.00" x="1263.26" y="376.02"/>
    <poi id="3343422689" type="shop" color="237,199,255" layer="-1.00" x="1553.33" y="350.34"/>
    <poi id="3343501088" type="shop" color="237,199,255" layer="-1.00" x="1982.07" y="736.63"/>
    <poi id="3343501089" type="shop" color="237,199,255" layer="-1.00" x="1945.41" y="746.41"/>
    <poi id="3343501090" type="shop" color="237,199,255" layer="-1.00" x="1895.01" y="805.43"/>
    <poi id="3343501091" type="shop" color="237,199,255" layer="-1.00" x="1820.48" y="856.62"/>
    <poi id="3343504695" type="shop" color="237,199,255" layer="-1.00" x="1897.26" y="905.62"/>
    <poi id="3343504698" type="shop" color="237,199,255" layer="-1.00" x="1638.10" y="843.64"/>
    <poi id="3369920461" type="amenity" color="237,199,199" layer="-1.00" x="1439.99" y="399.26"/>
    <poi id="3369937934" type="amenity" color="237,199,199" layer="-1.00" x="1566.61" y="587.80"/>
    <poi id="3392577991" type="shop" color="237,199,255" layer="-1.00" x="1966.00" y="574.20"/>
    <poi id="3394070664" type="amenity" color="237,199,199" layer="-1.00" x="1256.69" y="542.65"/>
    <poi id="3475014196" type="shop" color="237,199,255" layer="-1.00" x="1594.08" y="557.08"/>
    <poi id="3475014197" type="amenity" color="237,199,199" layer="-1.00" x="1581.08" y="566.33"/>
    <poi id="3475014198" type="amenity" color="237,199,199" layer="-1.00" x="1568.34" y="615.30"/>
    <poi id="3475016121" type="amenity" color="237,199,199" layer="-1.00" x="1610.59" y="630.85"/>
    <poi id="3475016122" type="shop" color="237,199,255" layer="-1.00" x="1675.30" y="595.84"/>
    <poi id="3475018389" type="amenity" color="237,199,199" layer="-1.00" x="1321.86" y="638.40"/>
    <poi id="3475028693" type="amenity" color="237,199,199" layer="-1.00" x="1995.77" y="712.14"/>
    <poi id="3494188978" type="amenity" color="237,199,199" layer="-1.00" x="1785.46" y="399.76"/>
</additional>
