<?xml version="1.0" encoding="UTF-8"?>

<!-- generated on Sun May 17 15:21:45 2015 by SUMO duarouter Version 0.22.0
<?xml version="1.0" encoding="UTF-8"?>

<configuration xmlns:xsi="http://www.w3.org/2001/XMLSchema-instance" xsi:noNamespaceSchemaLocation="http://sumo.dlr.de/xsd/duarouterConfiguration.xsd">

    <input>
        <net-file value="map.net.xml"/>
        <trip-files value="trips.trips.xml"/>
    </input>

    <output>
        <output-file value="map.rou.xml"/>
    </output>

    <processing>
        <ignore-errors value="true"/>
    </processing>

    <time>
        <begin value="0"/>
        <end value="100.0"/>
    </time>

    <report>
        <no-step-log value="true"/>
    </report>

</configuration>
-->

<routes xmlns:xsi="http://www.w3.org/2001/XMLSchema-instance" xsi:noNamespaceSchemaLocation="http://sumo.dlr.de/xsd/routes_file.xsd">

    <vTypeDistribution id="typedist1">
      <vType accel="3.0" decel="6.0" id="CarA" length="5.0" minGap="2.5" maxSpeed="50.0" sigma="0.3" />
      <vType accel="2.0" decel="6.0" id="CarB" length="7.5" minGap="2.5" maxSpeed="50.0" sigma="0.3" />
      <vType accel="1.0" decel="5.0" id="CarC" length="5.0" minGap="2.5" maxSpeed="40.0" sigma="0.3" />
      <vType accel="1.0" decel="5.0" id="CarD" length="7.5" minGap="2.5" maxSpeed="30.0" sigma="0.1" />
    </vTypeDistribution>
  
    <vehicle id="0a" depart="0.00">
        <route edges="249466775#0 310330511#3 24848527#1 24848527#2 24848527#3 24848527#4 24848527#5 24848527#6 24848527#7 24848527#8 24848527#9 184982731#3 184982731#4 184982731#5 184982731#6 184982731#7 184982731#8 184982731#9 244891102#0 244891102#1 244891102#2 -244891108#0 244891107#0 244891107#1"/>
    </vehicle>
    <vehicle id="1a" depart="1.00">
        <route edges="98437606 300742327#7 242516284#3 24848529#1 23180344#4 23180344#5 23180344#6 242516278#0 242516278#1 -242516282 98357915#4 98357915#5 98365958#0 171970530#1"/>
    </vehicle>
    <vehicle id="2a" depart="2.00">
        <route edges="24848529#3 24848529#4 249466775#4 249466775#5 23211496#1 23211496#2 23211496#3 242516284#6 24848959#0 24848959#1 24848959#2 24848972 -24848972"/>
    </vehicle>
    <vehicle id="3a" depart="3.00">
        <route edges="184982731#4 184982731#5 184982731#6 184982731#7 28443414#3 28443414#4 28443414#5 23185111#1 23185111#2 23185111#3 23185111#4 23185111#5 98357908#4"/>
    </vehicle>
    <vehicle id="5a" depart="5.00">
        <route edges="-244891108#1 244891108#1 244891108#2 244891105#0 244891105#1 244891104 24849001#2 24849001#3 24849001#4"/>
    </vehicle>
    <vehicle id="6a" depart="6.00">
        <route edges="67826418 323979551#7 323979551#8 323979551#9 323979551#10 323979551#11 323979551#12 323979551#13 323979551#14 323979551#15 323979551#16"/>
    </vehicle>
    <vehicle id="10a" depart="10.00">
        <route edges="-24848969 24848969 244891102#1 244891102#2 -244891108#0 244891107#0 244891107#1 244891107#2 244891107#3 244891107#4 244891107#5 244891107#6 244891107#7 244891107#8 23180344#0 23180344#1 23180344#2 23180344#3 23180344#4 23180344#5 23180344#6 242516278#0 242516278#1 242516284#0 242516284#1 242516284#2"/>
    </vehicle>
    <vehicle id="11a" depart="11.00">
        <route edges="-98365963 24848959#2 24848959#3 28443414#7 28443414#8 28443414#9 28443414#10 24848547#0 24848547#1 -24848545#0 98357938#1 98357938#2 98357938#3 98357938#4 -98357932 98357932"/>
    </vehicle>
    <vehicle id="12a" depart="12.00">
        <route edges="323673759#0 24848540#0 24848540#1 23180344#6 242516278#0 242516278#1 242516281 242516276#0 242516276#1 23200242#2 23200242#3 23200242#4 98357928#0 98357928#1 23185107 249466766#1 249466766#2 249466766#3 98357915#0"/>
    </vehicle>
    <vehicle id="13" depart="13.00">
        <route edges="323979551#15 249466775#5 23211496#1 24848527#6 24848527#7 24848527#8 24848527#9 184982731#3 184982731#4 184982731#5 184982731#6 184982731#7 184982731#8 184982731#9 23185108 244891104 24849001#2 24849001#3 24849001#4"/>
    </vehicle>
    <vehicle id="15" depart="15.00">
        <route edges="28443433#2 28443433#3 242516284#8 242516284#9 242516284#10 184982731#6 184982731#7 184982731#8 184982731#9 244891102#0 244891102#1 244891102#2 244891102#3 24848965#0 24848965#1"/>
    </vehicle>
    <vehicle id="19" depart="19.00">
        <route edges="-24848977#1 98437605#1 98437605#2 -67826415#0 184982731#9 23185108"/>
    </vehicle>
    <vehicle id="21" depart="21.00">
        <route edges="66616725#1 323979549#1 323979549#2 67826413 98357908#3 98357908#4"/>
    </vehicle>
    <vehicle id="22" depart="22.00">
        <route edges="24848959#1 -24848959#1 67826414 323979551#11 323979551#12 23180344#3 23180344#4 23180344#5 24848540#2 24848540#3 24848540#4 24848540#5 24848540#6 24848540#7"/>
    </vehicle>
    <vehicle id="23" depart="23.00">
        <route edges="-67826410 244891107#1 244891107#2 244891107#3 244891107#4 244891107#5 244891107#6 244891107#7 244891107#8 244891107#9 244891107#10 244891107#11"/>
    </vehicle>
    <vehicle id="24" depart="24.00">
        <route edges="23180344#0 28443433#3 242516284#8 242516284#9 242516284#10 242516284#11"/>
    </vehicle>
    <vehicle id="25" depart="25.00">
        <route edges="28443414#8 24848529#0 242516284#4 242516284#5 242516284#6 242516284#7 242516284#8 242516284#9 242516284#10 184982731#6 184982731#7 184982731#8 184982731#9 23185108 244891104 24849001#2 23185096 98472407#3"/>
    </vehicle>
    <vehicle id="26" depart="26.00">
        <route edges="98357900 323979551#3 323979551#4 323979551#5 323979551#6 323979551#7 323979551#8 -24848972 -24848959#2 -24848959#1 67826414"/>
    </vehicle>
    <vehicle id="28" depart="28.00">
        <route edges="242516279#1 242516278#0 242516278#1 242516284#0 242516284#1 242516284#2 242516284#3 242516284#4 242516284#5 242516284#6 242516284#7 242516284#8 242516284#9 242516284#10 184982731#6 184982731#7 184982731#8 184982731#9 23185108 244891103#0 244891103#1 244891103#2 244891103#3"/>
    </vehicle>
    <vehicle id="29" depart="29.00">
        <route edges="300742327#3 249466775#3 249466775#4 249466775#5 249466775#6"/>
    </vehicle>
    <vehicle id="30" depart="30.00">
        <route edges="300742327#1 300742327#2 300742327#3 300742327#4 300742327#5 23180344#5 23180344#6 242516278#0 242516278#1 242516281 242516276#0 242516276#1 23200242#2 23200242#3 23200242#4 98357928#0 98357928#1 -98357928#1"/>
    </vehicle>
    <vehicle id="31" depart="31.00">
        <route edges="-310330511#1 310330511#1 310330511#2 310330511#3 310330511#4 242516278#0 242516278#1 323673759#0 323673759#1 98357938#0 98357938#1 98357938#2 98357938#3 98357908#0 98357908#1 98357908#2 98357908#3 23185111#6 23185111#7"/>
    </vehicle>
    <vehicle id="32" depart="32.00">
        <route edges="-66616730 323979550#1 323979550#2 244891107#0 244891107#1 244891107#2 244891107#3 244891107#4 244891107#5 244891107#6 244891107#7 244891107#8 23180344#0 23180344#1 23180344#2 23180344#3 23180344#4 23180344#5 24848540#2 24848527#2 24848527#3"/>
    </vehicle>
    <vehicle id="33" depart="33.00">
        <route edges="28443433#0 28443433#1 28443433#2 28443433#3 23185111#0 28443414#6 28443414#7 28443414#8 24848529#0"/>
    </vehicle>
    <vehicle id="34" depart="34.00">
        <route edges="98357908#1 323979551#4 323979551#5 323979551#6 323979551#7 323979551#8 323979551#9 323979551#10 323979551#11 323979551#12 23180344#3 23180344#4 300742327#6"/>
    </vehicle>
    <vehicle id="35" depart="35.00">
        <route edges="340286529 28443414#10 24848547#0 24848547#1 24848545#1 24848545#2 24848545#3 24848545#4 23185109#0 23185109#1 23185109#2 244891107#3 244891107#4 244891107#5 244891107#6 242516284#10 184982731#6 184982731#7 184982731#8 184982731#9 244891102#0 244891102#1 244891102#2 244891108#1 -244891108#1"/>
    </vehicle>
    <vehicle id="36" depart="36.00">
        <route edges="24848529#1 23180344#4 300742327#6 300742327#7 98365954 24848547#0 24848547#1 -24848545#0 98357938#1 98357938#2 98357938#3 98357938#4 -98357932 98357932"/>
    </vehicle>
    <vehicle id="37" depart="37.00">
        <route edges="-24848977#1 98437605#1 28443414#1 28443414#2 28443414#3 28443414#4 28443414#5 28443414#6 28443414#7 28443414#8 28443414#9 28443414#10 24848547#0 24848547#1 -24848545#0 98357938#1 98357938#2 98357938#3"/>
    </vehicle>
    <vehicle id="39" depart="39.00">
        <route edges="24848959#0 67826414 323979551#11 323979551#12 23180344#3 23180344#4 23180344#5 24848540#2 24848540#3 249466775#2 249466775#3"/>
    </vehicle>
    <vehicle id="40" depart="40.00">
        <route edges="23185109#0 23185111#3 23185111#4 23185111#5 -98357908#3 -67826413"/>
    </vehicle>
    <vehicle id="42" depart="42.00">
        <route edges="244891103#0 244891103#1 244891103#2 23180337 28443414#0 28443414#1 28443414#2 28443414#3 28443414#4 28443414#5 28443414#6 28443414#7 28443414#8 28443414#9 28443414#10 24848547#0 24848547#1 -24848545#0 24848545#0"/>
    </vehicle>
    <vehicle id="45" depart="45.00">
        <route edges="244891107#7 244891107#8 23180344#0 23180344#1 23180344#2 323979551#13 24848527#5 24848527#6 28443433#2"/>
    </vehicle>
    <vehicle id="46" depart="46.00">
        <route edges="-98357908#4 -98357908#3 -98357908#2 323979551#4 323979551#5 323979551#6 323979551#7 323979551#8 323979551#9 323979551#10 323979551#11 323979551#12 23180344#3 23180344#4 23180344#5 23180344#6 242516278#0 242516278#1 242516281 242516276#0 242516276#1 -23200242#1 -271494190"/>
    </vehicle>
    <vehicle id="47" depart="47.00">
        <route edges="24848972 323979551#9 323979551#10 323979551#11 323979551#12 23180344#3 23180344#4 23180344#5 23180344#6 242516278#0 242516278#1 -242516282 98357915#4 98357915#5 98357915#6"/>
    </vehicle>
    <vehicle id="48" depart="48.00">
        <route edges="23200242#3 -23200242#3 -23200242#2 -23200242#1 -23200242#0 242516277#0 242516277#1 242516282 242516284#0 242516284#1 242516284#2 242516284#3 242516284#4 242516284#5 242516284#6 242516284#7 242516284#8 242516284#9 242516284#10 184982731#6 184982731#7 184982731#8 184982731#9 23185108 244891104 24849001#2 24849001#3 24849001#4"/>
    </vehicle>
    <vehicle id="49" depart="49.00">
        <route edges="98357908#2 -98357908#2 323979551#4 323979551#5 323979551#6 323979551#7 323979551#8 323979551#9 323979551#10 323979551#11 323979551#12 23180344#3 23180344#4 23180344#5 23180344#6 242516278#0 242516278#1 -242516282 242516283 242516279#0 242516279#1"/>
    </vehicle>
    <vehicle id="51" depart="51.00">
        <route edges="300742327#3 300742327#4 300742327#5 300742327#6 300742327#7 98365954 24848547#0 24848547#1 -24848545#0 98357938#1 98357938#2 98357938#3 98357908#0 98357908#1 98357908#2 98357908#3 23185111#6"/>
    </vehicle>
    <vehicle id="53" depart="53.00">
        <route edges="23211496#3 242516284#6 24848959#0 67826414 323979551#11 323979551#12 323979551#13 323979551#14"/>
    </vehicle>
    <vehicle id="54" depart="54.00">
        <route edges="-24848959#0 24848959#0 67826414 323979551#11 323979551#12 23180344#3 23180344#4 23180344#5 23180344#6 -310330511#4 -310330511#3 -310330511#2 -310330511#1 310330511#1"/>
    </vehicle>
    <vehicle id="56" depart="56.00">
        <route edges="23211496#0 23211496#1 23211496#2 23180344#2 23180344#3 23180344#4 23180344#5 23180344#6 242516278#0 242516278#1 323673759#0"/>
    </vehicle>
    <vehicle id="57" depart="57.00">
        <route edges="24848540#3 24848540#4 24848540#5 24848540#6 24848540#7"/>
    </vehicle>
    <vehicle id="60" depart="60.00">
        <route edges="300742327#1"/>
    </vehicle>
    <vehicle id="61" depart="61.00">
        <route edges="67826413 98357908#3 98357908#4 244891107#2 244891107#3 244891107#4 244891107#5 244891107#6 242516284#10 184982731#6"/>
    </vehicle>
    <vehicle id="63" depart="63.00">
        <route edges="310330511#1 310330511#2 249466775#1 249466775#2 249466775#3 249466775#4 249466775#5"/>
    </vehicle>
    <vehicle id="64" depart="64.00">
        <route edges="242516284#8 242516284#9 244891107#7 244891107#8 23180344#0 23180344#1 23180344#2 23180344#3 23180344#4 23180344#5 24848540#2"/>
    </vehicle>
    <vehicle id="65" depart="65.00">
        <route edges="23211496#1 23211496#2 23180344#2 23180344#3 23180344#4 23180344#5 23180344#6 242516278#0"/>
    </vehicle>
    <vehicle id="66" depart="66.00">
        <route edges="98437605#0 98437605#1 28443414#1 28443414#2 28443414#3 244891107#5 244891107#6 244891107#7 244891107#8 23180344#0 23180344#1 23180344#2 23180344#3 23180344#4 23180344#5 23180344#6 -310330511#4 -310330511#3 310330511#3"/>
    </vehicle>
    <vehicle id="67" depart="67.00">
        <route edges="-244891108#2 -244891108#1 -244891108#0 323979549#0 323979549#1 323979549#2 323979549#3 323979551#0 323979551#1 98357932 98357938#5"/>
    </vehicle>
    <vehicle id="68" depart="68.00">
        <route edges="-98357918 -244891108#1 -244891108#0 244891107#0 244891107#1 244891107#2 244891107#3 244891107#4 244891107#5 244891107#6 244891107#7 244891107#8 23180344#0 23180344#1 23180344#2 323979551#13 24848527#5 24848527#6 28443433#2"/>
    </vehicle>
    <vehicle id="69" depart="69.00">
        <route edges="24848545#2 24848545#3 24848545#4 23185109#0 23185109#1 23185109#2 244891107#3 244891107#4 244891107#5 244891107#6 242516284#10 184982731#6 184982731#7 184982731#8 184982731#9 23185108 244891103#0 244891103#1 244891103#2 23180337 24848977#0 -24848977#0"/>
    </vehicle>
    <vehicle id="70" depart="70.00">
        <route edges="24848540#1 24848540#2 24848527#2 24848527#3 24848527#4 24848527#5 24848527#6 24848527#7 24848527#8 24848527#9 184982731#3 184982731#4 184982731#5 184982731#6 184982731#7 184982731#8 184982731#9 23185108 244891103#0 244891103#1 -67826422"/>
    </vehicle>
    <vehicle id="71" depart="71.00">
        <route edges="24848959#0 67826414 323979551#11 323979551#12 23180344#3 23180344#4 23180344#5 23180344#6 242516278#0 242516278#1 242516281 242516276#0 242516276#1 -23200242#1 -23200242#0 242516277#0"/>
    </vehicle>
    <vehicle id="72" depart="72.00">
        <route edges="310330511#0 310330511#1 310330511#2"/>
    </vehicle>
    <vehicle id="73" depart="73.00">
        <route edges="66616725#0 -66616730 323979550#1 323979550#2 244891107#0 244891107#1 244891107#2 244891107#3 244891107#4 244891107#5 244891107#6 244891107#7 244891107#8 244891107#9"/>
    </vehicle>
    <vehicle id="75" depart="75.00">
        <route edges="24848972 -24848972 -24848959#2 -24848959#1 -24848959#0 242516284#7 23185111#0 23185111#1 23185111#2 23185109#1 67826423"/>
    </vehicle>
    <vehicle id="76" depart="76.00">
        <route edges="184982731#1 184982731#2 184982731#3 184982731#4 184982731#5 184982731#6 184982731#7 184982731#8 184982731#9 23185108 244891103#0 244891103#1 244891103#2"/>
    </vehicle>
    <vehicle id="77" depart="77.00">
        <route edges="24848529#0 24848529#1 23180344#4 23180344#5 23180344#6 -310330511#4 -310330511#3 -310330511#2 -310330511#1 -310330511#0"/>
    </vehicle>
    <vehicle id="78" depart="78.00">
        <route edges="249466777#1 242516275#0 242516275#1 242516279#1 -310330511#4 24848527#1 24848527#2 24848527#3 24848527#4 323979551#14 323979551#15 323979551#16"/>
    </vehicle>
    <vehicle id="79" depart="79.00">
        <route edges="23180337 28443414#0 98437605#2 -67826415#0 184982731#9 244891102#0 244891102#1 244891102#2 -244891108#0 323979549#0 323979549#1 323979549#2 323979549#3 323979551#0 323979551#1 98357932"/>
    </vehicle>
    <vehicle id="81" depart="81.00">
        <route edges="-67826413 67826413 98357908#3 98357908#4 244891107#2 244891107#3 244891107#4 244891107#5 244891107#6 244891107#7 244891107#8 244891107#9"/>
    </vehicle>
    <vehicle id="83" depart="83.00">
        <route edges="249466775#0 310330511#3 24848527#1 24848527#2 24848527#3 24848527#4 24848527#5 24848527#6 24848527#7 24848527#8 24848527#9 184982731#3 184982731#4 184982731#5 184982731#6 184982731#7 184982731#8 184982731#9 23185108 244891103#0"/>
    </vehicle>
    <vehicle id="84" depart="84.00">
        <route edges="98357938#0 24848545#0 24848545#1 24848545#2 24848545#3 24848545#4 23185109#0 23185109#1 23185109#2 244891107#3 244891107#4 244891107#5 244891107#6 242516284#10 184982731#6 184982731#7 184982731#8 184982731#9 244891102#0 244891102#1 244891102#2 244891102#3 24848965#0 24848965#1"/>
    </vehicle>
    <vehicle id="85" depart="85.00">
        <route edges="323979550#0 323979550#1 323979550#2 244891108#0 244891108#1 244891108#2 244891105#0 244891105#1 244891103#0 244891103#1 244891103#2 244891103#3"/>
    </vehicle>
    <vehicle id="86" depart="86.00">
        <route edges="-310330511#1 310330511#1 310330511#2 310330511#3 24848527#1 24848527#2 24848527#3 24848527#4 24848527#5 24848527#6 28443433#2"/>
    </vehicle>
    <vehicle id="87" depart="87.00">
        <route edges="67826413 98357908#3 98357908#4 244891107#2 244891107#3 244891107#4 244891107#5 244891107#6 242516284#10 184982731#6 184982731#7 184982731#8 184982731#9 23185108 244891103#0 244891103#1 244891103#2 23180337 28443414#0"/>
    </vehicle>
    <vehicle id="88" depart="88.00">
        <route edges="98365954 24848547#0 24848547#1 24848545#1 24848545#2 24848545#3 24848545#4 323979551#6 323979551#7 323979551#8 323979551#9 323979551#10 323979551#11 323979551#12 23180344#3 24848529#2 24848529#3 24848529#4 24848529#5"/>
    </vehicle>
    <vehicle id="90" depart="90.00">
        <route edges="23211496#0 23211496#1 23211496#2 23180344#2 23180344#3 23180344#4 23180344#5 23180344#6 242516278#0 242516278#1 -242516282 98357915#4 98357915#5 98365958#0 98365958#1"/>
    </vehicle>
    <vehicle id="92" depart="92.00">
        <route edges="249466777#1 249466777#2 249466777#3 249466777#4 242516284#0 242516284#1 242516284#2 242516284#3 242516284#4 242516284#5 242516284#6 242516284#7 242516284#8 242516284#9 242516284#10 184982731#6 184982731#7 184982731#8 184982731#9 244891102#0 -24848969"/>
    </vehicle>
    <vehicle id="93" depart="93.00">
        <route edges="-67826415#1 -67826415#0 184982731#9 244891102#0 244891102#1 244891102#2 -244891108#0 244891107#0 244891107#1 244891107#2 244891107#3 244891107#4 244891107#5 244891107#6 244891107#7 244891107#8 23180344#0 23180344#1 23180344#2 323979551#13 323979551#14 98444358"/>
    </vehicle>
    <vehicle id="94" depart="94.00">
        <route edges="-310330511#3 310330511#3 24848527#1 24848527#2 24848527#3 24848527#4 24848527#5 24848527#6 24848527#7 24848527#8 24848527#9 184982731#3 184982731#4 184982731#5 184982731#6 184982731#7 184982731#8 184982731#9 23185108 -244891105#1"/>
    </vehicle>
    <vehicle id="95" depart="95.00">
        <route edges="67826411 -98357908#2 323979551#4 323979551#5 323979551#6 323979551#7 323979551#8 -24848972 -24848959#2 -24848959#1 -24848959#0 242516284#7 242516284#8"/>
    </vehicle>
    <vehicle id="98" depart="98.00">
        <route edges="-98357932 323979551#2 323979551#3 98357908#2 98357908#3 98357908#4 244891107#2 244891107#3 244891107#4 244891107#5 244891107#6 242516284#10 184982731#6 184982731#7 184982731#8 184982731#9 244891102#0 -24848969"/>
    </vehicle>
    <vehicle id="99" depart="99.00">
        <route edges="28443433#2 28443433#3 242516284#8 242516284#9 242516284#10 184982731#6 184982731#7 184982731#8 184982731#9 244891102#0 244891102#1 244891102#2 -244891108#0 323979549#0 -66616725#1 66616725#1"/>
    </vehicle>
</routes>
