<?xml version="1.0" encoding="UTF-8"?>

<!-- generated on Sun May 17 15:11:24 2015 by SUMO netconvert Version 0.22.0
<?xml version="1.0" encoding="UTF-8"?>

<configuration xmlns:xsi="http://www.w3.org/2001/XMLSchema-instance" xsi:noNamespaceSchemaLocation="http://sumo.dlr.de/xsd/netconvertConfiguration.xsd">

    <input>
        <osm-files value="map.osm"/>
    </input>

    <output>
        <output-file value="map.net.xml"/>
    </output>

    <projection>
        <proj.utm value="true"/>
    </projection>

</configuration>
-->

<net version="0.13" xmlns:xsi="http://www.w3.org/2001/XMLSchema-instance" xsi:noNamespaceSchemaLocation="http://sumo.dlr.de/xsd/net_file.xsd">

    <location netOffset="-734840.97,-4202634.03" convBoundary="0.00,0.00,3228.78,1993.46" origBoundary="23.672760,37.940596,23.709746,37.958394" projParameter="+proj=utm +zone=34 +ellps=WGS84 +datum=WGS84 +units=m +no_defs"/>

    <edge id=":1137942973_0" function="internal">
        <lane id=":1137942973_0_0" index="0" speed="13.89" length="5.13" shape="1092.41,472.29 1091.56,471.12 1090.57,470.47 1089.43,470.36 1088.14,470.77"/>
    </edge>
    <edge id=":1137942973_1" function="internal">
        <lane id=":1137942973_1_0" index="0" speed="13.89" length="10.48" shape="1092.41,472.29 1091.42,469.58 1091.55,467.22 1092.81,465.23 1095.19,463.60"/>
    </edge>
    <edge id=":1137942973_2" function="internal">
        <lane id=":1137942973_2_0" index="0" speed="13.89" length="4.82" shape="1092.41,472.29 1092.55,470.81 1093.08,470.05 1094.00,470.03 1095.31,470.73"/>
    </edge>
    <edge id=":1137942973_3" function="internal">
        <lane id=":1137942973_3_0" index="0" speed="13.89" length="5.04" shape="1096.65,466.55 1095.51,467.34 1094.91,468.30 1094.84,469.43 1095.31,470.73"/>
    </edge>
    <edge id=":1137942973_4" function="internal">
        <lane id=":1137942973_4_0" index="0" speed="13.89" length="9.50" shape="1096.65,466.55 1088.14,470.77"/>
    </edge>
    <edge id=":1137942973_5" function="internal">
        <lane id=":1137942973_5_0" index="0" speed="13.89" length="2.41" shape="1096.65,466.55 1095.18,466.36 1094.44,465.81"/>
    </edge>
    <edge id=":1137942973_9" function="internal">
        <lane id=":1137942973_9_0" index="0" speed="13.89" length="2.41" shape="1094.44,465.81 1094.44,464.88 1095.19,463.60"/>
    </edge>
    <edge id=":1137942973_6" function="internal">
        <lane id=":1137942973_6_0" index="0" speed="13.89" length="9.50" shape="1086.67,467.81 1095.19,463.60"/>
    </edge>
    <edge id=":1137942973_7" function="internal">
        <lane id=":1137942973_7_0" index="0" speed="13.89" length="7.08" shape="1086.67,467.81 1089.31,466.96 1091.63,467.16 1093.31,468.21"/>
    </edge>
    <edge id=":1137942973_8" function="internal">
        <lane id=":1137942973_8_0" index="0" speed="13.89" length="2.41" shape="1086.67,467.81 1088.15,468.00 1088.88,468.56"/>
    </edge>
    <edge id=":1137942973_10" function="internal">
        <lane id=":1137942973_10_0" index="0" speed="13.89" length="3.25" shape="1093.31,468.21 1093.63,468.41 1095.31,470.73"/>
    </edge>
    <edge id=":1137942973_11" function="internal">
        <lane id=":1137942973_11_0" index="0" speed="13.89" length="2.41" shape="1088.88,468.56 1088.88,469.48 1088.14,470.77"/>
    </edge>
    <edge id=":1137942975_0" function="internal">
        <lane id=":1137942975_0_0" index="0" speed="13.89" length="5.01" shape="1407.10,363.20 1406.04,364.07 1405.50,365.07 1405.49,366.20 1406.00,367.46"/>
    </edge>
    <edge id=":1137942975_1" function="internal">
        <lane id=":1137942975_1_0" index="0" speed="13.89" length="2.41" shape="1407.10,363.20 1405.62,363.13 1404.84,362.64"/>
    </edge>
    <edge id=":1137942975_4" function="internal">
        <lane id=":1137942975_4_0" index="0" speed="13.89" length="2.41" shape="1404.84,362.64 1404.77,361.72 1405.40,360.37"/>
    </edge>
    <edge id=":1137942975_2" function="internal">
        <lane id=":1137942975_2_0" index="0" speed="13.89" length="5.00" shape="1401.15,359.32 1402.01,360.38 1403.01,360.91 1404.14,360.91 1405.40,360.37"/>
    </edge>
    <edge id=":1137942975_3" function="internal">
        <lane id=":1137942975_3_0" index="0" speed="13.89" length="9.48" shape="1401.15,359.32 1406.00,367.46"/>
    </edge>
    <edge id=":1137942979_0" function="internal">
        <lane id=":1137942979_0_0" index="0" speed="13.89" length="4.82" shape="1360.82,361.43 1360.83,359.94 1361.28,359.14 1362.20,359.02 1363.57,359.60"/>
    </edge>
    <edge id=":1137942979_1" function="internal">
        <lane id=":1137942979_1_0" index="0" speed="11.11" length="4.92" shape="1364.28,355.28 1363.35,356.23 1362.92,357.27 1362.99,358.39 1363.57,359.60"/>
    </edge>
    <edge id=":1137942980_0" function="internal">
        <lane id=":1137942980_0_0" index="0" speed="20.83" length="5.10" shape="1499.15,311.36 1498.25,310.35 1497.21,309.87 1496.04,309.91 1494.73,310.47"/>
    </edge>
    <edge id=":1137942980_1" function="internal">
        <lane id=":1137942980_1_0" index="0" speed="27.78" length="9.43" shape="1499.15,311.36 1494.05,303.38"/>
        <lane id=":1137942980_1_1" index="1" speed="27.78" length="9.43" shape="1501.91,309.55 1496.85,301.64"/>
    </edge>
    <edge id=":1137942980_3" function="internal">
        <lane id=":1137942980_3_0" index="0" speed="20.83" length="5.02" shape="1493.03,307.65 1494.10,306.78 1494.62,305.77 1494.61,304.64 1494.05,303.38"/>
    </edge>
    <edge id=":1137942980_4" function="internal">
        <lane id=":1137942980_4_0" index="0" speed="13.89" length="4.82" shape="1493.03,307.65 1494.51,307.71 1495.29,308.21 1495.36,309.13 1494.73,310.47"/>
    </edge>
    <edge id=":1137942983_0" function="internal">
        <lane id=":1137942983_0_0" index="0" speed="13.89" length="9.41" shape="1409.50,373.42 1414.48,381.40"/>
    </edge>
    <edge id=":1137942983_1" function="internal">
        <lane id=":1137942983_1_0" index="0" speed="13.89" length="7.78" shape="1409.50,373.42 1410.75,375.92 1411.28,377.93 1411.09,379.45 1410.18,380.48"/>
    </edge>
    <edge id=":1137942983_2" function="internal">
        <lane id=":1137942983_2_0" index="0" speed="13.89" length="2.91" shape="1408.45,377.67 1409.77,377.32 1411.22,377.82"/>
    </edge>
    <edge id=":1137942983_3" function="internal">
        <lane id=":1137942983_3_0" index="0" speed="13.89" length="2.41" shape="1408.45,377.67 1409.93,377.72 1410.72,378.21"/>
    </edge>
    <edge id=":1137942983_4" function="internal">
        <lane id=":1137942983_4_0" index="0" speed="13.89" length="4.87" shape="1411.22,377.82 1412.79,379.18 1414.48,381.40"/>
    </edge>
    <edge id=":1137942983_5" function="internal">
        <lane id=":1137942983_5_0" index="0" speed="13.89" length="2.41" shape="1410.72,378.21 1410.80,379.13 1410.18,380.48"/>
    </edge>
    <edge id=":1137942988_0" function="internal">
        <lane id=":1137942988_0_0" index="0" speed="13.89" length="6.28" shape="1386.07,334.66 1389.43,339.97"/>
    </edge>
    <edge id=":1137942988_1" function="internal">
        <lane id=":1137942988_1_0" index="0" allow="pedestrian" speed="11.11" length="5.17" shape="1386.07,334.66 1386.63,335.88 1386.66,337.04 1386.15,338.13 1385.12,339.17"/>
    </edge>
    <edge id=":1137942989_0" function="internal">
        <lane id=":1137942989_0_0" index="0" speed="13.89" length="4.82" shape="1120.48,517.74 1120.34,519.22 1119.81,519.97 1118.88,520.00 1117.57,519.29"/>
    </edge>
    <edge id=":1138014928_0" function="internal">
        <lane id=":1138014928_0_0" index="0" speed="13.89" length="9.52" shape="1595.06,634.21 1601.75,641.00"/>
    </edge>
    <edge id=":1138014928_1" function="internal">
        <lane id=":1138014928_1_0" index="0" speed="13.89" length="8.09" shape="1595.06,634.21 1596.91,636.39 1597.84,638.27 1597.85,639.85 1596.96,641.13"/>
    </edge>
    <edge id=":1138014928_2" function="internal">
        <lane id=":1138014928_2_0" index="0" speed="13.89" length="3.12" shape="1594.85,638.59 1596.21,637.97 1597.82,638.16"/>
    </edge>
    <edge id=":1138014928_3" function="internal">
        <lane id=":1138014928_3_0" index="0" speed="13.89" length="2.41" shape="1594.85,638.59 1596.33,638.43 1597.17,638.80"/>
    </edge>
    <edge id=":1138014928_4" function="internal">
        <lane id=":1138014928_4_0" index="0" speed="13.89" length="4.88" shape="1597.82,638.16 1599.66,639.17 1601.75,641.00"/>
    </edge>
    <edge id=":1138014928_5" function="internal">
        <lane id=":1138014928_5_0" index="0" speed="13.89" length="2.41" shape="1597.17,638.80 1597.38,639.70 1596.96,641.13"/>
    </edge>
    <edge id=":1138014933_0" function="internal">
        <lane id=":1138014933_0_0" index="0" speed="13.89" length="6.20" shape="1525.70,485.55 1520.43,488.82"/>
    </edge>
    <edge id=":1138014933_1" function="internal">
        <lane id=":1138014933_1_0" index="0" allow="pedestrian" speed="11.11" length="4.67" shape="1525.70,485.55 1524.38,485.89 1522.93,485.37 1521.60,484.21"/>
    </edge>
    <edge id=":1138014933_2" function="internal">
        <lane id=":1138014933_2_0" index="0" speed="13.89" length="2.41" shape="1525.70,485.55 1524.21,485.50 1523.43,485.02"/>
    </edge>
    <edge id=":1138014933_6" function="internal">
        <lane id=":1138014933_6_0" index="0" speed="11.11" length="3.18" shape="1521.60,484.21 1521.34,483.98 1519.62,481.73"/>
    </edge>
    <edge id=":1138014933_7" function="internal">
        <lane id=":1138014933_7_0" index="0" speed="13.89" length="2.41" shape="1523.43,485.02 1523.34,484.10 1523.96,482.75"/>
    </edge>
    <edge id=":1138014933_3" function="internal">
        <lane id=":1138014933_3_0" index="0" allow="pedestrian" speed="11.11" length="5.04" shape="1518.69,486.02 1519.75,485.12 1520.26,484.11 1520.21,482.98 1519.62,481.73"/>
    </edge>
    <edge id=":1138014933_4" function="internal">
        <lane id=":1138014933_4_0" index="0" speed="13.89" length="6.20" shape="1518.69,486.02 1523.96,482.75"/>
    </edge>
    <edge id=":1138014933_5" function="internal">
        <lane id=":1138014933_5_0" index="0" speed="13.89" length="2.41" shape="1518.69,486.02 1520.17,486.06 1520.96,486.55"/>
    </edge>
    <edge id=":1138014933_8" function="internal">
        <lane id=":1138014933_8_0" index="0" speed="13.89" length="2.41" shape="1520.96,486.55 1521.04,487.47 1520.43,488.82"/>
    </edge>
    <edge id=":1138014936_0" function="internal">
        <lane id=":1138014936_0_0" index="0" speed="11.11" length="5.06" shape="1518.63,493.66 1517.69,492.61 1516.65,492.10 1515.51,492.11 1514.27,492.64"/>
    </edge>
    <edge id=":1138014936_1" function="internal">
        <lane id=":1138014936_1_0" index="0" speed="11.11" length="7.96" shape="1518.63,493.66 1517.21,491.21 1516.61,489.21 1516.80,487.66 1517.80,486.57"/>
    </edge>
    <edge id=":1138014936_2" function="internal">
        <lane id=":1138014936_2_0" index="0" speed="13.89" length="6.20" shape="1519.54,489.37 1514.27,492.64"/>
    </edge>
    <edge id=":1138014936_3" function="internal">
        <lane id=":1138014936_3_0" index="0" speed="13.89" length="2.41" shape="1519.54,489.37 1518.05,489.32 1517.27,488.84"/>
    </edge>
    <edge id=":1138014936_6" function="internal">
        <lane id=":1138014936_6_0" index="0" speed="13.89" length="2.41" shape="1517.27,488.84 1517.18,487.92 1517.80,486.57"/>
    </edge>
    <edge id=":1138014936_4" function="internal">
        <lane id=":1138014936_4_0" index="0" speed="13.89" length="6.20" shape="1512.53,489.84 1517.80,486.57"/>
    </edge>
    <edge id=":1138014936_5" function="internal">
        <lane id=":1138014936_5_0" index="0" speed="13.89" length="2.41" shape="1512.53,489.84 1514.02,489.89 1514.80,490.37"/>
    </edge>
    <edge id=":1138014936_7" function="internal">
        <lane id=":1138014936_7_0" index="0" speed="13.89" length="2.41" shape="1514.80,490.37 1514.89,491.29 1514.27,492.64"/>
    </edge>
    <edge id=":1138014951_0" function="internal">
        <lane id=":1138014951_0_0" index="0" speed="11.11" length="7.92" shape="1497.50,448.63 1496.11,446.18 1495.50,444.18 1495.68,442.64 1496.64,441.55"/>
    </edge>
    <edge id=":1138014951_1" function="internal">
        <lane id=":1138014951_1_0" index="0" speed="13.89" length="4.82" shape="1498.41,444.34 1496.92,444.30 1496.13,443.83 1496.04,442.91 1496.64,441.55"/>
    </edge>
    <edge id=":1138014954_0" function="internal">
        <lane id=":1138014954_0_0" index="0" speed="13.89" length="4.82" shape="1352.99,824.91 1354.48,824.97 1355.26,825.46 1355.34,826.38 1354.71,827.73"/>
    </edge>
    <edge id=":1138014956_0" function="internal">
        <lane id=":1138014956_0_0" index="0" speed="9.72" length="4.97" shape="1510.11,378.51 1509.21,377.49 1508.20,377.00 1507.07,377.04 1505.83,377.59"/>
    </edge>
    <edge id=":1138014956_1" function="internal">
        <lane id=":1138014956_1_0" index="0" speed="9.72" length="9.88" shape="1510.11,378.51 1508.90,376.05 1508.63,373.75 1509.29,371.59 1510.89,369.59"/>
    </edge>
    <edge id=":1138014956_2" function="internal">
        <lane id=":1138014956_2_0" index="0" allow="delivery" speed="5.56" length="4.82" shape="1510.11,378.51 1510.12,377.02 1510.58,376.22 1511.49,376.11 1512.87,376.69"/>
    </edge>
    <edge id=":1138014956_3" function="internal">
        <lane id=":1138014956_3_0" index="0" allow="delivery" speed="9.72" length="5.17" shape="1513.14,372.00 1512.34,373.03 1512.03,374.15 1512.20,375.37 1512.87,376.69"/>
    </edge>
    <edge id=":1138014956_4" function="internal">
        <lane id=":1138014956_4_0" index="0" speed="13.89" length="9.20" shape="1513.14,372.00 1505.83,377.59"/>
    </edge>
    <edge id=":1138014956_5" function="internal">
        <lane id=":1138014956_5_0" index="0" speed="13.89" length="2.41" shape="1513.14,372.00 1511.67,372.25 1510.81,371.92"/>
    </edge>
    <edge id=":1138014956_9" function="internal">
        <lane id=":1138014956_9_0" index="0" speed="13.89" length="2.41" shape="1510.81,371.92 1510.55,371.04 1510.89,369.59"/>
    </edge>
    <edge id=":1138014956_6" function="internal">
        <lane id=":1138014956_6_0" index="0" speed="13.89" length="8.58" shape="1504.07,374.80 1510.89,369.59"/>
    </edge>
    <edge id=":1138014956_7" function="internal">
        <lane id=":1138014956_7_0" index="0" allow="delivery" speed="9.72" length="6.56" shape="1504.07,374.80 1506.61,373.66 1508.93,373.59 1510.23,374.23"/>
    </edge>
    <edge id=":1138014956_8" function="internal">
        <lane id=":1138014956_8_0" index="0" speed="13.89" length="2.41" shape="1504.07,374.80 1505.55,374.84 1506.34,375.32"/>
    </edge>
    <edge id=":1138014956_10" function="internal">
        <lane id=":1138014956_10_0" index="0" speed="9.72" length="3.65" shape="1510.23,374.23 1511.01,374.60 1512.87,376.69"/>
    </edge>
    <edge id=":1138014956_11" function="internal">
        <lane id=":1138014956_11_0" index="0" speed="13.89" length="2.41" shape="1506.34,375.32 1506.44,376.23 1505.83,377.59"/>
    </edge>
    <edge id=":1138014966_0" function="internal">
        <lane id=":1138014966_0_0" index="0" speed="13.89" length="9.35" shape="1600.83,438.91 1592.89,443.83"/>
    </edge>
    <edge id=":1138014966_1" function="internal">
        <lane id=":1138014966_1_0" index="0" allow="delivery" speed="9.72" length="7.44" shape="1600.83,438.91 1598.62,440.04 1596.75,440.50 1595.22,440.28 1594.04,439.38"/>
    </edge>
    <edge id=":1138014966_2" function="internal">
        <lane id=":1138014966_2_0" index="0" speed="13.89" length="2.44" shape="1600.83,438.91 1599.33,439.11 1598.47,438.75"/>
    </edge>
    <edge id=":1138014966_9" function="internal">
        <lane id=":1138014966_9_0" index="0" speed="13.89" length="2.44" shape="1598.47,438.75 1598.23,437.85 1598.62,436.39"/>
    </edge>
    <edge id=":1138014966_3" function="internal">
        <lane id=":1138014966_3_0" index="0" speed="9.72" length="2.31" shape="1596.53,437.21 1596.76,437.28 1597.18,437.17 1597.80,436.87 1598.62,436.39"/>
    </edge>
    <edge id=":1138014966_4" function="internal">
        <lane id=":1138014966_4_0" index="0" speed="9.72" length="8.58" shape="1596.53,437.21 1597.18,438.72 1596.79,440.32 1595.36,442.03 1592.89,443.83"/>
    </edge>
    <edge id=":1138014966_5" function="internal">
        <lane id=":1138014966_5_0" index="0" allow="delivery" speed="5.56" length="4.82" shape="1596.53,437.21 1596.72,438.69 1596.37,439.54 1595.47,439.77 1594.04,439.38"/>
    </edge>
    <edge id=":1138014966_6" function="internal">
        <lane id=":1138014966_6_0" index="0" allow="delivery" speed="9.72" length="3.34" shape="1591.15,441.03 1592.38,440.27 1593.28,439.74 1593.83,439.44 1594.04,439.38"/>
    </edge>
    <edge id=":1138014966_7" function="internal">
        <lane id=":1138014966_7_0" index="0" speed="13.89" length="8.79" shape="1591.15,441.03 1598.62,436.39"/>
    </edge>
    <edge id=":1138014966_8" function="internal">
        <lane id=":1138014966_8_0" index="0" speed="13.89" length="2.41" shape="1591.15,441.03 1592.63,441.08 1593.42,441.56"/>
    </edge>
    <edge id=":1138014966_10" function="internal">
        <lane id=":1138014966_10_0" index="0" speed="13.89" length="2.41" shape="1593.42,441.56 1593.50,442.48 1592.89,443.83"/>
    </edge>
    <edge id=":1138014969_0" function="internal">
        <lane id=":1138014969_0_0" index="0" allow="pedestrian" speed="11.11" length="5.39" shape="1628.88,463.80 1627.83,463.06 1626.66,462.80 1625.36,463.02 1623.93,463.71"/>
    </edge>
    <edge id=":1138014969_1" function="internal">
        <lane id=":1138014969_1_0" index="0" speed="13.89" length="6.29" shape="1628.88,463.80 1624.42,459.36"/>
    </edge>
    <edge id=":1138014969_2" function="internal">
        <lane id=":1138014969_2_0" index="0" speed="13.89" length="2.41" shape="1628.88,463.80 1628.58,462.34 1628.87,461.47"/>
    </edge>
    <edge id=":1138014969_6" function="internal">
        <lane id=":1138014969_6_0" index="0" speed="13.89" length="2.41" shape="1628.87,461.47 1629.75,461.18 1631.21,461.46"/>
    </edge>
    <edge id=":1138014969_3" function="internal">
        <lane id=":1138014969_3_0" index="0" speed="13.89" length="6.29" shape="1626.75,457.03 1631.21,461.46"/>
    </edge>
    <edge id=":1138014969_4" function="internal">
        <lane id=":1138014969_4_0" index="0" allow="pedestrian" speed="11.11" length="5.11" shape="1626.75,457.03 1627.72,458.58 1627.57,460.21 1626.60,461.53"/>
    </edge>
    <edge id=":1138014969_5" function="internal">
        <lane id=":1138014969_5_0" index="0" speed="13.89" length="2.41" shape="1626.75,457.03 1627.05,458.48 1626.76,459.36"/>
    </edge>
    <edge id=":1138014969_7" function="internal">
        <lane id=":1138014969_7_0" index="0" speed="11.11" length="3.46" shape="1626.60,461.53 1626.31,461.92 1623.93,463.71"/>
    </edge>
    <edge id=":1138014969_8" function="internal">
        <lane id=":1138014969_8_0" index="0" speed="13.89" length="2.41" shape="1626.76,459.36 1625.88,459.65 1624.42,459.36"/>
    </edge>
    <edge id=":1138014974_0" function="internal">
        <lane id=":1138014974_0_0" index="0" speed="13.89" length="10.37" shape="1542.88,415.06 1540.63,417.09 1538.97,418.47 1537.22,419.72 1534.67,421.36"/>
    </edge>
    <edge id=":1138014974_1" function="internal">
        <lane id=":1138014974_1_0" index="0" allow="delivery" speed="9.72" length="7.77" shape="1542.88,415.06 1540.30,416.80 1537.88,417.19 1535.85,416.31"/>
    </edge>
    <edge id=":1138014974_2" function="internal">
        <lane id=":1138014974_2_0" index="0" speed="13.89" length="2.41" shape="1542.88,415.06 1541.41,415.28 1540.55,414.95"/>
    </edge>
    <edge id=":1138014974_9" function="internal">
        <lane id=":1138014974_9_0" index="0" speed="9.72" length="3.35" shape="1535.85,416.31 1535.64,416.22 1533.56,413.90"/>
    </edge>
    <edge id=":1138014974_10" function="internal">
        <lane id=":1138014974_10_0" index="0" speed="13.89" length="2.41" shape="1540.55,414.95 1540.30,414.06 1540.66,412.62"/>
    </edge>
    <edge id=":1138014974_3" function="internal">
        <lane id=":1138014974_3_0" index="0" speed="9.72" length="5.19" shape="1536.31,412.07 1537.28,413.16 1538.33,413.61 1539.46,413.43 1540.66,412.62"/>
    </edge>
    <edge id=":1138014974_4" function="internal">
        <lane id=":1138014974_4_0" index="0" speed="9.72" length="10.80" shape="1536.31,412.07 1537.66,414.83 1537.83,417.30 1536.83,419.47 1534.67,421.36"/>
    </edge>
    <edge id=":1138014974_5" function="internal">
        <lane id=":1138014974_5_0" index="0" allow="delivery" speed="5.56" length="4.82" shape="1536.31,412.07 1536.31,413.56 1535.85,414.36 1534.94,414.47 1533.56,413.90"/>
    </edge>
    <edge id=":1138014974_6" function="internal">
        <lane id=":1138014974_6_0" index="0" allow="delivery" speed="9.72" length="5.40" shape="1532.91,418.57 1533.94,417.65 1534.39,416.56 1534.27,415.31 1533.56,413.90"/>
    </edge>
    <edge id=":1138014974_7" function="internal">
        <lane id=":1138014974_7_0" index="0" speed="13.89" length="9.78" shape="1532.91,418.57 1540.66,412.62"/>
    </edge>
    <edge id=":1138014974_8" function="internal">
        <lane id=":1138014974_8_0" index="0" speed="13.89" length="2.41" shape="1532.91,418.57 1534.39,418.61 1535.18,419.08"/>
    </edge>
    <edge id=":1138014974_11" function="internal">
        <lane id=":1138014974_11_0" index="0" speed="13.89" length="2.41" shape="1535.18,419.08 1535.28,420.00 1534.67,421.36"/>
    </edge>
    <edge id=":1138014977_0" function="internal">
        <lane id=":1138014977_0_0" index="0" speed="9.72" length="5.07" shape="1563.07,401.06 1562.05,400.11 1560.98,399.73 1559.86,399.94 1558.70,400.72"/>
    </edge>
    <edge id=":1138014977_1" function="internal">
        <lane id=":1138014977_1_0" index="0" speed="9.72" length="7.27" shape="1563.07,401.06 1561.40,398.80 1560.40,396.99 1560.06,395.62 1560.38,394.69"/>
    </edge>
    <edge id=":1138014977_2" function="internal">
        <lane id=":1138014977_2_0" index="0" allow="delivery" speed="5.56" length="4.82" shape="1563.07,401.06 1562.94,399.58 1563.32,398.74 1564.22,398.54 1565.64,398.99"/>
    </edge>
    <edge id=":1138014977_3" function="internal">
        <lane id=":1138014977_3_0" index="0" allow="delivery" speed="9.72" length="5.20" shape="1565.27,394.29 1564.60,395.32 1564.44,396.45 1564.79,397.67 1565.64,398.99"/>
    </edge>
    <edge id=":1138014977_4" function="internal">
        <lane id=":1138014977_4_0" index="0" speed="13.89" length="9.19" shape="1565.27,394.29 1558.70,400.72"/>
    </edge>
    <edge id=":1138014977_5" function="internal">
        <lane id=":1138014977_5_0" index="0" speed="13.89" length="3.58" shape="1565.27,394.29 1564.20,396.22 1563.03,396.93"/>
    </edge>
    <edge id=":1138014977_9" function="internal">
        <lane id=":1138014977_9_0" index="0" speed="13.89" length="3.58" shape="1563.03,396.93 1561.75,396.43 1560.38,394.69"/>
    </edge>
    <edge id=":1138014977_6" function="internal">
        <lane id=":1138014977_6_0" index="0" speed="13.89" length="5.29" shape="1556.48,398.28 1560.38,394.69"/>
    </edge>
    <edge id=":1138014977_7" function="internal">
        <lane id=":1138014977_7_0" index="0" allow="delivery" speed="9.72" length="6.91" shape="1556.48,398.28 1558.91,396.64 1561.25,396.21 1562.77,396.74"/>
    </edge>
    <edge id=":1138014977_8" function="internal">
        <lane id=":1138014977_8_0" index="0" speed="13.89" length="2.41" shape="1556.48,398.28 1557.96,398.06 1558.81,398.39"/>
    </edge>
    <edge id=":1138014977_10" function="internal">
        <lane id=":1138014977_10_0" index="0" speed="9.72" length="3.70" shape="1562.77,396.74 1563.49,396.99 1565.64,398.99"/>
    </edge>
    <edge id=":1138014977_11" function="internal">
        <lane id=":1138014977_11_0" index="0" speed="13.89" length="2.41" shape="1558.81,398.39 1559.06,399.28 1558.70,400.72"/>
    </edge>
    <edge id=":1138014978_0" function="internal">
        <lane id=":1138014978_0_0" index="0" speed="13.89" length="9.54" shape="1522.29,678.00 1516.99,670.06"/>
    </edge>
    <edge id=":1138014978_1" function="internal">
        <lane id=":1138014978_1_0" index="0" allow="delivery" speed="9.72" length="6.96" shape="1522.29,678.00 1521.17,675.59 1521.10,673.26 1521.88,671.44"/>
    </edge>
    <edge id=":1138014978_2" function="internal">
        <lane id=":1138014978_2_0" index="0" speed="13.89" length="2.41" shape="1522.29,678.00 1522.28,676.51 1522.74,675.71"/>
    </edge>
    <edge id=":1138014978_9" function="internal">
        <lane id=":1138014978_9_0" index="0" speed="9.72" length="3.42" shape="1521.88,671.44 1522.07,671.01 1524.07,668.85"/>
    </edge>
    <edge id=":1138014978_10" function="internal">
        <lane id=":1138014978_10_0" index="0" speed="13.89" length="2.41" shape="1522.74,675.71 1523.66,675.59 1525.03,676.16"/>
    </edge>
    <edge id=":1138014978_3" function="internal">
        <lane id=":1138014978_3_0" index="0" speed="9.72" length="5.47" shape="1526.20,671.38 1525.07,672.56 1524.51,673.75 1524.49,674.95 1525.03,676.16"/>
    </edge>
    <edge id=":1138014978_4" function="internal">
        <lane id=":1138014978_4_0" index="0" speed="9.72" length="10.89" shape="1526.20,671.38 1523.62,672.98 1521.22,673.29 1519.02,672.32 1516.99,670.06"/>
    </edge>
    <edge id=":1138014978_5" function="internal">
        <lane id=":1138014978_5_0" index="0" allow="delivery" speed="5.56" length="4.82" shape="1526.20,671.38 1524.72,671.54 1523.87,671.17 1523.66,670.28 1524.07,668.85"/>
    </edge>
    <edge id=":1138014978_6" function="internal">
        <lane id=":1138014978_6_0" index="0" allow="delivery" speed="9.72" length="5.14" shape="1519.73,668.23 1520.69,669.29 1521.73,669.75 1522.86,669.60 1524.07,668.85"/>
    </edge>
    <edge id=":1138014978_7" function="internal">
        <lane id=":1138014978_7_0" index="0" speed="13.89" length="9.54" shape="1519.73,668.23 1525.03,676.16"/>
    </edge>
    <edge id=":1138014978_8" function="internal">
        <lane id=":1138014978_8_0" index="0" speed="13.89" length="2.41" shape="1519.73,668.23 1519.73,669.72 1519.28,670.52"/>
    </edge>
    <edge id=":1138014978_11" function="internal">
        <lane id=":1138014978_11_0" index="0" speed="13.89" length="2.41" shape="1519.28,670.52 1518.36,670.63 1516.99,670.06"/>
    </edge>
    <edge id=":1138014980_0" function="internal">
        <lane id=":1138014980_0_0" index="0" speed="13.89" length="9.52" shape="1579.36,618.27 1586.04,625.05"/>
    </edge>
    <edge id=":1138014980_1" function="internal">
        <lane id=":1138014980_1_0" index="0" allow="delivery" speed="9.72" length="8.08" shape="1579.36,618.27 1581.21,620.45 1582.14,622.33 1582.16,623.90 1581.28,625.18"/>
    </edge>
    <edge id=":1138014980_2" function="internal">
        <lane id=":1138014980_2_0" index="0" speed="9.72" length="7.99" shape="1579.16,622.65 1580.51,622.02 1582.12,622.21 1583.96,623.22 1586.04,625.05"/>
    </edge>
    <edge id=":1138014980_3" function="internal">
        <lane id=":1138014980_3_0" index="0" allow="delivery" speed="5.56" length="4.82" shape="1579.16,622.65 1580.63,622.49 1581.48,622.85 1581.69,623.75 1581.28,625.18"/>
    </edge>
    <edge id=":1138014991_0" function="internal">
        <lane id=":1138014991_0_0" index="0" speed="13.89" length="4.82" shape="1185.91,650.48 1185.86,649.00 1186.29,648.18 1187.20,648.03 1188.59,648.55"/>
    </edge>
    <edge id=":1138965140_0" function="internal">
        <lane id=":1138965140_0_0" index="0" speed="13.89" length="7.71" shape="1805.94,624.19 1800.26,618.97"/>
    </edge>
    <edge id=":1138965140_1" function="internal">
        <lane id=":1138965140_1_0" index="0" speed="11.11" length="6.82" shape="1803.92,617.18 1803.86,619.38 1803.23,620.41 1802.03,620.28 1800.26,618.97"/>
    </edge>
    <edge id=":1138965143_0" function="internal">
        <lane id=":1138965143_0_0" index="0" allow="pedestrian" speed="11.11" length="6.59" shape="1798.37,526.76 1797.65,527.73 1797.20,529.10 1797.00,530.87 1797.06,533.03"/>
    </edge>
    <edge id=":1138965143_1" function="internal">
        <lane id=":1138965143_1_0" index="0" speed="13.89" length="7.04" shape="1798.37,526.76 1793.16,531.49"/>
    </edge>
    <edge id=":1139078429_0" function="internal">
        <lane id=":1139078429_0_0" index="0" allow="delivery" speed="9.72" length="5.03" shape="1895.88,909.68 1897.00,910.44 1898.12,910.67 1899.22,910.36 1900.31,909.50"/>
    </edge>
    <edge id=":1139078429_1" function="internal">
        <lane id=":1139078429_1_0" index="0" speed="13.89" length="6.20" shape="1895.88,909.68 1900.44,913.88"/>
    </edge>
    <edge id=":1139078496_0" function="internal">
        <lane id=":1139078496_0_0" index="0" speed="13.89" length="6.20" shape="1944.60,859.16 1949.10,863.43"/>
    </edge>
    <edge id=":1139078496_1" function="internal">
        <lane id=":1139078496_1_0" index="0" speed="9.72" length="5.01" shape="1944.70,863.54 1945.78,862.70 1946.88,862.40 1947.99,862.64 1949.10,863.43"/>
    </edge>
    <edge id=":2297383014_0" function="internal">
        <lane id=":2297383014_0_0" index="0" speed="27.78" length="0.10" shape="1954.64,1259.44 1954.64,1259.44"/>
        <lane id=":2297383014_0_1" index="1" speed="27.78" length="0.10" shape="1953.00,1262.30 1953.00,1262.30"/>
        <lane id=":2297383014_0_2" index="2" speed="27.78" length="0.10" shape="1951.37,1265.17 1951.37,1265.17"/>
    </edge>
    <edge id=":2297383022_0" function="internal">
        <lane id=":2297383022_0_0" index="0" speed="16.67" length="0.10" shape="1972.01,1289.13 1972.01,1289.13"/>
        <lane id=":2297383022_0_1" index="1" speed="16.67" length="0.10" shape="1973.59,1286.24 1973.59,1286.24"/>
        <lane id=":2297383022_0_2" index="2" speed="16.67" length="0.10" shape="1975.18,1283.34 1975.18,1283.34"/>
    </edge>
    <edge id=":2297384400_0" function="internal">