<?xml version="1.0"?>
<!-- generated on 2015-05-17 15:21:45.855994 by $Id: randomTrips.py 17235 2014-11-03 10:53:02Z behrisch $
  options: -n map.net.xml -r map.rou.xml -e 100 -l
-->
<trips>
    <trip id="0" depart="0.00" from="249466775#0" to="244891107#1" />
    <trip id="1" depart="1.00" from="98437606" to="171970530#1" />
    <trip id="2" depart="2.00" from="24848529#3" to="-24848972" />
    <trip id="3" depart="3.00" from="184982731#4" to="98357908#4" />
    <trip id="4" depart="4.00" from="98365958#1" to="24848540#4" />
    <trip id="5" depart="5.00" from="-244891108#1" to="24849001#4" />
    <trip id="6" depart="6.00" from="67826418" to="323979551#16" />
    <trip id="7" depart="7.00" from="23185107" to="184982731#1" />
    <trip id="8" depart="8.00" from="184982731#0" to="98472407#1" />
    <trip id="9" depart="9.00" from="171970530#0" to="98357908#4" />
    <trip id="10" depart="10.00" from="-24848969" to="242516284#2" />
    <trip id="11" depart="11.00" from="-98365963" to="98357932" />
    <trip id="12" depart="12.00" from="323673759#0" to="98357915#0" />
    <trip id="13" depart="13.00" from="323979551#15" to="24849001#4" />
    <trip id="14" depart="14.00" from="310330511#0" to="249466777#1" />
    <trip id="15" depart="15.00" from="28443433#2" to="24848965#1" />
    <trip id="16" depart="16.00" from="300742327#5" to="184982731#1" />
    <trip id="17" depart="17.00" from="-24848959#2" to="249466777#1" />
    <trip id="18" depart="18.00" from="24848540#6" to="24848969" />
    <trip id="19" depart="19.00" from="-24848977#1" to="23185108" />
    <trip id="20" depart="20.00" from="24848540#6" to="332287578" />
    <trip id="21" depart="21.00" from="66616725#1" to="98357908#4" />
    <trip id="22" depart="22.00" from="24848959#1" to="24848540#7" />
    <trip id="23" depart="23.00" from="-67826410" to="244891107#11" />
    <trip id="24" depart="24.00" from="23180344#0" to="242516284#11" />
    <trip id="25" depart="25.00" from="28443414#8" to="98472407#3" />
    <trip id="26" depart="26.00" from="98357900" to="67826414" />
    <trip id="27" depart="27.00" from="23185097" to="244891103#3" />
    <trip id="28" depart="28.00" from="242516279#1" to="244891103#3" />
    <trip id="29" depart="29.00" from="300742327#3" to="249466775#6" />
    <trip id="30" depart="30.00" from="300742327#1" to="-98357928#1" />
    <trip id="31" depart="31.00" from="-310330511#1" to="23185111#7" />
    <trip id="32" depart="32.00" from="-66616730" to="24848527#3" />
    <trip id="33" depart="33.00" from="28443433#0" to="24848529#0" />
    <trip id="34" depart="34.00" from="98357908#1" to="300742327#6" />
    <trip id="35" depart="35.00" from="340286529" to="-244891108#1" />
    <trip id="36" depart="36.00" from="24848529#1" to="98357932" />
    <trip id="37" depart="37.00" from="-24848977#1" to="98357938#3" />
    <trip id="38" depart="38.00" from="23185097" to="28443414#4" />
    <trip id="39" depart="39.00" from="24848959#0" to="249466775#3" />
    <trip id="40" depart="40.00" from="23185109#0" to="-67826413" />
    <trip id="41" depart="41.00" from="98472407#0" to="23185111#7" />
    <trip id="42" depart="42.00" from="244891103#0" to="24848545#0" />
    <trip id="43" depart="43.00" from="98472407#0" to="23185111#0" />
    <trip id="44" depart="44.00" from="244891107#12" to="-310330511#3" />
    <trip id="45" depart="45.00" from="244891107#7" to="28443433#2" />
    <trip id="46" depart="46.00" from="-98357908#4" to="-271494190" />
    <trip id="47" depart="47.00" from="24848972" to="98357915#6" />
    <trip id="48" depart="48.00" from="23200242#3" to="24849001#4" />
    <trip id="49" depart="49.00" from="98357908#2" to="242516279#1" />
    <trip id="50" depart="50.00" from="28443433#1" to="98472407#1" />
    <trip id="51" depart="51.00" from="300742327#3" to="23185111#6" />
    <trip id="52" depart="52.00" from="98472407#1" to="184982731#1" />
    <trip id="53" depart="53.00" from="23211496#3" to="323979551#14" />
    <trip id="54" depart="54.00" from="-24848959#0" to="310330511#1" />
    <trip id="55" depart="55.00" from="98472407#1" to="24849001#4" />
    <trip id="56" depart="56.00" from="23211496#0" to="323673759#0" />
    <trip id="57" depart="57.00" from="24848540#3" to="24848540#7" />
    <trip id="58" depart="58.00" from="23185097" to="24848540#7" />
    <trip id="59" depart="59.00" from="98472407#0" to="98365953#0" />
    <trip id="60" depart="60.00" from="300742327#1" to="300742327#1" />
    <trip id="61" depart="61.00" from="67826413" to="184982731#6" />
    <trip id="62" depart="62.00" from="244891107#12" to="244891103#0" />
    <trip id="63" depart="63.00" from="310330511#1" to="249466775#5" />
    <trip id="64" depart="64.00" from="242516284#8" to="24848540#2" />
    <trip id="65" depart="65.00" from="23211496#1" to="242516278#0" />
    <trip id="66" depart="66.00" from="98437605#0" to="310330511#3" />
    <trip id="67" depart="67.00" from="-244891108#2" to="98357938#5" />
    <trip id="68" depart="68.00" from="-98357918" to="28443433#2" />
    <trip id="69" depart="69.00" from="24848545#2" to="-24848977#0" />
    <trip id="70" depart="70.00" from="24848540#1" to="-67826422" />
    <trip id="71" depart="71.00" from="24848959#0" to="242516277#0" />
    <trip id="72" depart="72.00" from="310330511#0" to="310330511#2" />
    <trip id="73" depart="73.00" from="66616725#0" to="244891107#9" />
    <trip id="74" depart="74.00" from="244891107#13" to="244891107#11" />
    <trip id="75" depart="75.00" from="24848972" to="67826423" />
    <trip id="76" depart="76.00" from="184982731#1" to="244891103#2" />
    <trip id="77" depart="77.00" from="24848529#0" to="-310330511#0" />
    <trip id="78" depart="78.00" from="249466777#1" to="323979551#16" />
    <trip id="79" depart="79.00" from="23180337" to="98357932" />
    <trip id="80" depart="80.00" from="171970530#0" to="249466777#1" />
    <trip id="81" depart="81.00" from="-67826413" to="244891107#9" />
    <trip id="82" depart="82.00" from="-23185109#2" to="98472407#1" />
    <trip id="83" depart="83.00" from="249466775#0" to="244891103#0" />
    <trip id="84" depart="84.00" from="98357938#0" to="24848965#1" />
    <trip id="85" depart="85.00" from="323979550#0" to="244891103#3" />
    <trip id="86" depart="86.00" from="-310330511#1" to="28443433#2" />
    <trip id="87" depart="87.00" from="67826413" to="28443414#0" />
    <trip id="88" depart="88.00" from="98365954" to="24848529#5" />
    <trip id="89" depart="89.00" from="244891107#5" to="184982731#1" />
    <trip id="90" depart="90.00" from="23211496#0" to="98365958#1" />
    <trip id="91" depart="91.00" from="171970530#0" to="300742327#1" />
    <trip id="92" depart="92.00" from="249466777#1" to="-24848969" />
    <trip id="93" depart="93.00" from="-67826415#1" to="98444358" />
    <trip id="94" depart="94.00" from="-310330511#3" to="-244891105#1" />
    <trip id="95" depart="95.00" from="67826411" to="242516284#8" />
    <trip id="96" depart="96.00" from="310330511#1" to="300742327#3" />
    <trip id="97" depart="97.00" from="-23180337" to="98472407#1" />
    <trip id="98" depart="98.00" from="-98357932" to="-24848969" />
    <trip id="99" depart="99.00" from="28443433#2" to="66616725#1" />
</trips>